16
 generated by VMD
 C         1.230000        0.710000        0.000000
 H         2.162000        1.249000        0.000000
 C         0.000000        1.420000        0.000000
 S         0.004252        2.937616       -0.084993
 C        -1.230000        0.710000        0.000000
 H        -2.162000        1.249000        0.000000
 C        -1.230000       -0.710000        0.000000
 C        -2.528489       -1.460950        0.000000
 C         0.000000       -1.420000        0.000000
 H         0.000000       -2.497000        0.000000
 C         1.230000       -0.710000        0.000000
 H         2.162000       -1.249000        0.000000
 H        -1.233730        3.659960       -0.125253
 H        -2.902080       -1.558023        1.042000
 H        -3.300427       -0.923161       -0.592000
 H        -2.409445       -2.483757       -0.419000
